Circuit: * C:\users\matt\My Documents\LTspiceXVII\My Schematics\Solar Engines\Regulator\Nocturnal_Solar_Regulator.asc

Direct Newton iteration for .op point succeeded.

Date: Mon Nov 12 15:42:51 2018
Total elapsed time: 22.121 seconds.

tnom = 27
temp = 27
method = modified trap
totiter = 1210312
traniter = 1210276
tranpoints = 605010
accept = 604956
rejected = 54
matrix size = 17
fillins = 20
solver = Normal
Matrix Compiler1: 2.37 KB object code size  1.0/0.6/[0.6]
Matrix Compiler2: off  [0.6]/0.6/0.7

