Circuit: * C:\users\matt\My Documents\git\solar-regulator\ltspice\Nocturnal_Solar_Regulator.asc

Direct Newton iteration for .op point succeeded.
Changing Tseed to 1e-008
Changing Tseed to 1e-010

Date: Mon Nov 12 18:07:23 2018
Total elapsed time: 16.459 seconds.

tnom = 27
temp = 27
method = modified trap
totiter = 1211149
traniter = 1211119
tranpoints = 605252
accept = 605131
rejected = 119
matrix size = 18
fillins = 20
solver = Normal
Matrix Compiler1:     133 opcodes  0.7/[0.7]/0.9
Matrix Compiler2: off  [0.5]/0.5/0.6

